Program Version,EnergyPlus, Version 23.1.0-87ed9199d4, YMD=2023.09.14 18:28
! <Version>, Version ID
 Version, 23.1
! <Timesteps per Hour>, #TimeSteps, Minutes per TimeStep {minutes}
 Timesteps per Hour,  6, 10
! <System Convergence Limits>, Minimum System TimeStep {minutes}, Max HVAC Iterations, Minimum Plant Iterations, Maximum Plant Iterations
 System Convergence Limits, 1, 20, 2, 8
! <Simulation Control>, Do Zone Sizing, Do System Sizing, Do Plant Sizing, Do Design Days, Do Weather Simulation, Do HVAC Sizing Simulation
 Simulation Control, Yes, Yes, No, No, Yes, No
! <Performance Precision Tradeoffs>, Use Coil Direct Simulation, Zone Radiant Exchange Algorithm, Override Mode, Number of Timestep In Hour, Force Euler Method, Minimum Number of Warmup Days, Force Suppress All Begin Environment Resets, Minimum System Timestep, MaxZoneTempDiff, MaxAllowedDelTemp
 Performance Precision Tradeoffs, No, ScriptF, Normal, 6, No, 1, No, 1.0, 0.300, 2.0000E-003
! <Output Reporting Tolerances>, Tolerance for Time Heating Setpoint Not Met, Tolerance for Zone Cooling Setpoint Not Met Time
 Output Reporting Tolerances, 0.200, 0.200, 
! <Site:GroundTemperature:BuildingSurface>,Jan{C},Feb{C},Mar{C},Apr{C},May{C},Jun{C},Jul{C},Aug{C},Sep{C},Oct{C},Nov{C},Dec{C}
 Site:GroundTemperature:BuildingSurface,  20.03,  20.03,  20.13,  20.30,  20.43,  20.52,  20.62,  20.77,  20.78,  20.55,  20.44,  20.20
! <Site:GroundTemperature:FCfactorMethod>,Jan{C},Feb{C},Mar{C},Apr{C},May{C},Jun{C},Jul{C},Aug{C},Sep{C},Oct{C},Nov{C},Dec{C}
 Site:GroundTemperature:FCfactorMethod,  -1.89,  -3.06,  -0.99,   2.23,  10.68,  17.20,  21.60,  22.94,  20.66,  15.60,   8.83,   2.56
! <Site:GroundTemperature:Shallow>,Jan{C},Feb{C},Mar{C},Apr{C},May{C},Jun{C},Jul{C},Aug{C},Sep{C},Oct{C},Nov{C},Dec{C}
 Site:GroundTemperature:Shallow,  13.00,  13.00,  13.00,  13.00,  13.00,  13.00,  13.00,  13.00,  13.00,  13.00,  13.00,  13.00
! <Site:GroundTemperature:Deep>,Jan{C},Feb{C},Mar{C},Apr{C},May{C},Jun{C},Jul{C},Aug{C},Sep{C},Oct{C},Nov{C},Dec{C}
 Site:GroundTemperature:Deep,  16.00,  16.00,  16.00,  16.00,  16.00,  16.00,  16.00,  16.00,  16.00,  16.00,  16.00,  16.00
! <Site:GroundReflectance>,Jan{dimensionless},Feb{dimensionless},Mar{dimensionless},Apr{dimensionless},May{dimensionless},Jun{dimensionless},Jul{dimensionless},Aug{dimensionless},Sep{dimensionless},Oct{dimensionless},Nov{dimensionless},Dec{dimensionless}
 Site:GroundReflectance,  0.20,  0.20,  0.20,  0.20,  0.20,  0.20,  0.20,  0.20,  0.20,  0.20,  0.20,  0.20
! <Site:GroundReflectance:SnowModifier>, Normal, Daylighting {dimensionless}
 Site:GroundReflectance:SnowModifier,   1.000,   1.000
! <Site:GroundReflectance:Snow>,Jan{dimensionless},Feb{dimensionless},Mar{dimensionless},Apr{dimensionless},May{dimensionless},Jun{dimensionless},Jul{dimensionless},Aug{dimensionless},Sep{dimensionless},Oct{dimensionless},Nov{dimensionless},Dec{dimensionless}
 Site:GroundReflectance:Snow,  0.20,  0.20,  0.20,  0.20,  0.20,  0.20,  0.20,  0.20,  0.20,  0.20,  0.20,  0.20
! <Site:GroundReflectance:Snow:Daylighting>,Jan{dimensionless},Feb{dimensionless},Mar{dimensionless},Apr{dimensionless},May{dimensionless},Jun{dimensionless},Jul{dimensionless},Aug{dimensionless},Sep{dimensionless},Oct{dimensionless},Nov{dimensionless},Dec{dimensionless}
 Site:GroundReflectance:Snow:Daylighting,  0.20,  0.20,  0.20,  0.20,  0.20,  0.20,  0.20,  0.20,  0.20,  0.20,  0.20,  0.20
! <Environment:Weather Station>,Wind Sensor Height Above Ground {m},Wind Speed Profile Exponent {},Wind Speed Profile Boundary Layer Thickness {m},Air Temperature Sensor Height Above Ground {m},Wind Speed Modifier Coefficient-Internal,Temperature Modifier Coefficient-Internal
Environment:Weather Station,10.000,0.140,270.000,1.500,1.586,9.750E-003
! <Site:Location>, Location Name, Latitude {N+/S- Deg}, Longitude {E+/W- Deg},  Time Zone Number {GMT+/-}, Elevation {m},  Standard Pressure at Elevation {Pa}, Standard RhoAir at Elevation
Site:Location,Chicago Ohare Intl Ap IL USA TMY3 WMO#=725300,41.98,-87.92,-6.00,201.00,98934,1.1759
! <Site Water Mains Temperature Information>,Calculation Method{},Water Mains Temperature Schedule Name{},Annual Average Outdoor Air Temperature{C},Maximum Difference In Monthly Average Outdoor Air Temperatures{deltaC},Fixed Default Water Mains Temperature{C}
Site Water Mains Temperature Information,FixedDefault,NA,NA,NA,10.0
! <Building Information>, Building Name,North Axis {deg},Terrain,  Loads Convergence Tolerance Value,Temperature Convergence Tolerance Value,  Solar Distribution,Maximum Number of Warmup Days,Minimum Number of Warmup Days
 Building Information,NONE,0.000,Suburbs,4.00000E-002,0.40000,FullInteriorAndExterior,25,6
! <Inside Convection Algorithm>, Algorithm {Simple | TARP | CeilingDiffuser | AdaptiveConvectionAlgorithm}
Inside Convection Algorithm,TARP
! <Outside Convection Algorithm>, Algorithm {SimpleCombined | TARP | MoWitt | DOE-2 | AdaptiveConvectionAlgorithm}
Outside Convection Algorithm,DOE-2
! <Sky Radiance Distribution>, Value {Anisotropic}
Sky Radiance Distribution,Anisotropic
! <Zone Air Solution Algorithm>, Algorithm {ThirdOrderBackwardDifference | AnalyticalSolution | EulerMethod}, Space Heat Balance Sizing, Space Heat Balance Simulation
 Zone Air Solution Algorithm, ThirdOrderBackwardDifference, No, No
! <Zone Air Carbon Dioxide Balance Simulation>, Simulation {Yes/No}, Carbon Dioxide Concentration
 Zone Air Carbon Dioxide Balance Simulation, No,N/A
! <Zone Air Generic Contaminant Balance Simulation>, Simulation {Yes/No}, Generic Contaminant Concentration
 Zone Air Generic Contaminant Balance Simulation, No,N/A
! <Zone Air Mass Flow Balance Simulation>, Enforce Mass Balance, Adjust Zone Mixing and Return {AdjustMixingOnly | AdjustReturnOnly | AdjustMixingThenReturn | AdjustReturnThenMixing | None}, Adjust Zone Infiltration {AddInfiltration | AdjustInfiltration | None}, Infiltration Zones {MixingSourceZonesOnly | AllZones}
 Zone Air Mass Flow Balance Simulation, No,N/A,N/A,N/A
! <HVACSystemRootFindingAlgorithm>, Value {RegulaFalsi | Bisection | BisectionThenRegulaFalsi | RegulaFalsiThenBisection}
 HVACSystemRootFindingAlgorithm, RegulaFalsi
! <Environment:Site Atmospheric Variation>,Wind Speed Profile Exponent {},Wind Speed Profile Boundary Layer Thickness {m},Air Temperature Gradient Coefficient {K/m}
Environment:Site Atmospheric Variation,0.220,370.000,6.500000E-003
! <Surface Geometry>,Starting Corner,Vertex Input Direction,Coordinate System,Daylight Reference Point Coordinate System,Rectangular (Simple) Surface Coordinate System
 Surface Geometry,UpperLeftCorner,Counterclockwise,WorldCoordinateSystem,RelativeCoordinateSystem,RelativeToZoneOrigin
! <Surface Heat Transfer Algorithm>, Value {CTF - ConductionTransferFunction | EMPD - MoisturePenetrationDepthConductionTransferFunction | CondFD - ConductionFiniteDifference | HAMT - CombinedHeatAndMoistureFiniteElement} - Description,Inside Surface Max Temperature Limit{C}, Surface Convection Coefficient Lower Limit {W/m2-K}, Surface Convection Coefficient Upper Limit {W/m2-K}
Surface Heat Transfer Algorithm, CTF - ConductionTransferFunction,200,0.10,1000.0
! <Shading Summary>, Number of Fixed Detached Shades, Number of Building Detached Shades, Number of Attached Shades
 Shading Summary,0,0,0
! <Zone Summary>, Number of Zones, Number of Zone Surfaces, Number of SubSurfaces
 Zone Summary,3,21,1
! <Zone Information>,Zone Name,North Axis {deg},Origin X-Coordinate {m},Origin Y-Coordinate {m},Origin Z-Coordinate {m},Centroid X-Coordinate {m},Centroid Y-Coordinate {m},Centroid Z-Coordinate {m},Type,Zone Multiplier,Zone List Multiplier,Minimum X {m},Maximum X {m},Minimum Y {m},Maximum Y {m},Minimum Z {m},Maximum Z {m},Ceiling Height {m},Volume {m3},Zone Inside Convection Algorithm {Simple-Detailed-CeilingDiffuser-TrombeWall},Zone Outside Convection Algorithm {Simple-Detailed-Tarp-MoWitt-DOE-2-BLAST}, Floor Area {m2},Exterior Gross Wall Area {m2},Exterior Net Wall Area {m2},Exterior Window Area {m2}, Number of Surfaces, Number of SubSurfaces, Number of Shading SubSurfaces,  Part of Total Building Area
 Zone Information, WEST ZONE,0.0,0.00,0.00,0.00,3.05,3.05,1.52,1,1,1,0.00,6.10,0.00,6.10,0.00,3.05,3.05,113.27,TARP,DOE-2,37.16,37.16,27.16,10.00,6,1,0,Yes
 Zone Information, EAST ZONE,0.0,0.00,0.00,0.00,9.14,3.05,1.52,1,1,1,6.10,12.19,0.00,6.10,0.00,3.05,3.05,113.27,TARP,DOE-2,37.16,46.45,46.45,0.00,7,0,0,Yes
 Zone Information, NORTH ZONE,0.0,0.00,0.00,0.00,4.57,9.14,1.52,1,1,1,0.00,9.14,6.10,12.19,0.00,3.05,3.05,169.90,TARP,DOE-2,55.74,65.03,65.03,0.00,7,0,0,Yes
! <Zone Internal Gains Nominal>,Zone Name, Floor Area {m2},# Occupants,Area per Occupant {m2/person},Occupant per Area {person/m2},Interior Lighting {W/m2},Electric Load {W/m2},Gas Load {W/m2},Other Load {W/m2},Hot Water Eq {W/m2},Steam Equipment {W/m2},Sum Loads per Area {W/m2},Outdoor Controlled Baseboard Heat
 Zone Internal Gains Nominal, WEST ZONE,37.16,3.0,12.387,8.073E-002,0.000,0.000,0.000,0.000,0.000,0.000,0.000,No
 Zone Internal Gains Nominal, EAST ZONE,37.16,3.0,12.387,8.073E-002,0.000,0.000,0.000,0.000,0.000,0.000,0.000,No
 Zone Internal Gains Nominal, NORTH ZONE,55.74,4.0,13.935,7.176E-002,0.000,0.000,0.000,0.000,0.000,0.000,0.000,No
! <People Internal Gains Nominal>,Name,Schedule Name,Zone Name,Zone Floor Area {m2},# Zone Occupants,Number of People {},People/Floor Area {person/m2},Floor Area per person {m2/person},Fraction Radiant,Fraction Convected,Sensible Fraction Calculation,Activity level,ASHRAE 55 Warnings,Carbon Dioxide Generation Rate,Nominal Minimum Number of People,Nominal Maximum Number of People,MRT Calculation Type,Work Efficiency, Clothing Insulation Calculation Method,Clothing Insulation Calculation Method Schedule,Clothing,Air Velocity,Fanger Calculation,Pierce Calculation,KSU Calculation,Cooling Effect Calculation,Ankle Draft Calculation
 People Internal Gains Nominal, WESTPEOPLE,OFFICE OCCUPANCY,WEST ZONE,37.16,3.0,3.0,8.073E-002,12.387,0.300,0.700,AutoCalculate,ACTIVITY SCH,No,3.8200E-008,0,3,Zone Averaged,WORK EFF SCH,Clothing Insulation Schedule,N/A,CLOTHING SCH,AIR VELO SCH,Yes,No,No,No,No
 People Internal Gains Nominal, EASTPEOPLE,OFFICE OCCUPANCY,EAST ZONE,37.16,3.0,3.0,8.073E-002,12.387,0.300,0.700,AutoCalculate,ACTIVITY SCH,No,3.8200E-008,0,3,Zone Averaged,WORK EFF SCH,Clothing Insulation Schedule,N/A,CLOTHING SCH,AIR VELO SCH,Yes,No,No,No,No
 People Internal Gains Nominal, NORTHPEOPLE,OFFICE OCCUPANCY,NORTH ZONE,55.74,4.0,4.0,7.176E-002,13.935,0.300,0.700,AutoCalculate,ACTIVITY SCH,No,3.8200E-008,0,4,Zone Averaged,WORK EFF SCH,Clothing Insulation Schedule,N/A,CLOTHING SCH,AIR VELO SCH,Yes,No,No,No,No
! <Lights Internal Gains Nominal>,Name,Schedule Name,Zone Name,Zone Floor Area {m2},# Zone Occupants,Lighting Level {W},Lights/Floor Area {W/m2},Lights per person {W/person},Fraction Return Air,Fraction Radiant,Fraction Short Wave,Fraction Convected,Fraction Replaceable,End-Use Category,Nominal Minimum Lighting Level {W},Nominal Maximum Lighting Level {W}
 Lights Internal Gains Nominal, EAST ZONE LIGHTS 1,OFFICE LIGHTING,EAST ZONE,37.16,3.0,0.000,0.000,0.000,0.000,0.200,0.200,0.600,0.000,GeneralLights,0.000,0.000
 Lights Internal Gains Nominal, NORTH ZONE LIGHTS 1,OFFICE LIGHTING,NORTH ZONE,55.74,4.0,0.000,0.000,0.000,0.000,0.200,0.200,0.600,0.000,GeneralLights,0.000,0.000
! <ElectricEquipment Internal Gains Nominal>,Name,Schedule Name,Zone Name,Zone Floor Area {m2},# Zone Occupants,Equipment Level {W},Equipment/Floor Area {W/m2},Equipment per person {W/person},Fraction Latent,Fraction Radiant,Fraction Lost,Fraction Convected,End-Use SubCategory,Nominal Minimum Equipment Level {W},Nominal Maximum Equipment Level {W}
 ElectricEquipment Internal Gains Nominal, WEST ZONE ELECEQ 1,INTERMITTENT,WEST ZONE,37.16,3.0,0.000,0.000,0.000,0.000,0.300,0.000,0.700,General,0.000,0.000
 ElectricEquipment Internal Gains Nominal, EAST ZONE ELECEQ 1,INTERMITTENT,EAST ZONE,37.16,3.0,0.000,0.000,0.000,0.000,0.300,0.000,0.700,General,0.000,0.000
 ElectricEquipment Internal Gains Nominal, NORTH ZONE ELECEQ 1,INTERMITTENT,NORTH ZONE,55.74,4.0,0.000,0.000,0.000,0.000,0.300,0.000,0.700,General,0.000,0.000
! <Construction CTF>,Construction Name,Index,#Layers,#CTFs,Time Step {hours},ThermalConductance {w/m2-K},OuterThermalAbsorptance,InnerThermalAbsorptance,OuterSolarAbsorptance,InnerSolarAbsorptance,Roughness
! <Material CTF Summary>,Material Name,Thickness {m},Conductivity {w/m-K},Density {kg/m3},Specific Heat {J/kg-K},ThermalResistance {m2-K/w}
! <Material:Air>,Material Name,ThermalResistance {m2-K/w}
! <CTF>,Time,Outside,Cross,Inside,Flux (except final one)
 Construction CTF,EXTWALL80,   1,   3,   8,   0.167,      6.776    ,   0.900,   0.900,   0.920,   0.920,Smooth
 Material CTF Summary,A1 - 1 IN STUCCO,  0.0254,         0.692,   1858.142,      836.800,  0.3670E-01
 Material CTF Summary,C4 - 4 IN COMMON BRICK,  0.0615,         0.726,   1922.216,      836.800,  0.8466E-01
 Material CTF Summary,E1 - 3 / 4 IN PLASTER OR GYP BOARD,  0.0191,         0.726,   1601.846,      836.800,  0.2622E-01
 CTF,   8,      0.53759789E-11,      0.65993384E-13,      0.10149227E-10,      0.29100680E-16
 CTF,   7,     -0.39013098E-07,      0.13944921E-08,     -0.53967842E-07,      0.14375058E-11
 CTF,   6,      0.58259993E-04,      0.27208200E-05,      0.65477448E-04,     -0.71727829E-08
 CTF,   5,     -0.15169079E-01,      0.73660632E-03,     -0.15981868E-01,      0.76167503E-05
 CTF,   4,      0.81115088    ,      0.31907334E-01,      0.83542575    ,     -0.14651725E-02
 CTF,   3,      -11.539539    ,      0.25133268    ,      -11.548867    ,      0.54785176E-01
 CTF,   2,       53.159331    ,      0.37139281    ,       52.361211    ,     -0.49966509    
 CTF,   1,      -88.145660    ,      0.80542640E-01,      -86.343515    ,       1.3376379    
 CTF,   0,       46.466359    ,      0.61597920E-03,       45.448192    
 Construction CTF,PARTITION06,   2,   3,  10,   0.167,      2.447    ,   0.900,   0.900,   0.920,   0.920,Smooth
 Material CTF Summary,E1 - 3 / 4 IN PLASTER OR GYP BOARD,  0.0191,         0.726,   1601.846,      836.800,  0.2622E-01
 Material CTF Summary,C6 - 8 IN CLAY TILE,  0.2033,         0.571,   1121.292,      836.800,  0.3562    
 Material CTF Summary,E1 - 3 / 4 IN PLASTER OR GYP BOARD,  0.0191,         0.726,   1601.846,      836.800,  0.2622E-01
 CTF,  10,      0.64637566E-07,     -0.75093437E-13,      0.64637566E-07,     -0.95519331E-13
 CTF,   9,     -0.28031641E-02,      0.13356043E-11,     -0.28031641E-02,      0.10608113E-07
 CTF,   8,      0.11204697    ,      0.75080126E-08,      0.11204697    ,     -0.29407691E-03
 CTF,   7,      -1.7054911    ,      0.16787100E-05,      -1.7054911    ,      0.78486344E-02
 CTF,   6,       13.523817    ,      0.57259728E-04,       13.523817    ,     -0.87427846E-01
 CTF,   5,      -62.713368    ,      0.50192147E-03,      -62.713368    ,      0.52839254    
 CTF,   4,       178.19079    ,      0.13604575E-02,       178.19079    ,      -1.8877096    
 CTF,   3,      -312.49583    ,      0.11614923E-02,      -312.49583    ,       4.0709481    
 CTF,   2,       328.25314    ,      0.27190504E-03,       328.25314    ,      -5.1694923    
 CTF,   1,      -188.55556    ,      0.11157336E-04,      -188.55556    ,       3.5363591    
 CTF,   0,       45.396624    ,      0.13027953E-07,       45.396624    
 Construction CTF,FLOOR SLAB 8 IN,   3,   1,   5,   0.167,      8.507    ,   0.900,   0.900,   0.650,   0.650,MediumRough
 Material CTF Summary,C10 - 8 IN HW CONCRETE,  0.2033,         1.730,   2242.585,      836.800,  0.1175    
 CTF,   5,     -0.94594167    ,      0.23381574E-04,     -0.94594167    ,      0.15384493E-01
 CTF,   4,       12.357479    ,      0.25665155E-02,       12.357479    ,     -0.21012590    
 CTF,   3,      -58.117513    ,      0.25554205E-01,      -58.117513    ,       1.0462090    
 CTF,   2,       123.96999    ,      0.46225922E-01,       123.96999    ,      -2.3893145    
 CTF,   1,      -121.45954    ,      0.15257645E-01,      -121.45954    ,       2.5272575    
 CTF,   0,       44.285618    ,      0.46043407E-03,       44.285618    
 Construction CTF,ROOF34,   4,   4,   7,   0.167,      1.480    ,   0.900,   0.900,   0.550,   0.650,Rough
 Material CTF Summary,E2 - 1 / 2 IN SLAG OR STONE,  0.0127,         1.436,    881.015,     1673.600,  0.8854E-02
 Material CTF Summary,E3 - 3 / 8 IN FELT AND MEMBRANE,  0.0095,         0.190,   1121.292,     1673.600,  0.5014E-01
 Material CTF Summary,B5 - 1 IN DENSE INSULATION,  0.0254,         0.043,     91.305,      836.800,  0.5872    
 Material CTF Summary,C12 - 2 IN HW CONCRETE,  0.0509,         1.730,   2242.585,      836.800,  0.2943E-01
 CTF,   7,     -0.53195845E-11,      0.38782030E-13,     -0.34169086E-12,     -0.40499013E-15
 CTF,   6,      0.10607111E-06,      0.25830705E-08,      0.46416156E-07,     -0.47717577E-12
 CTF,   5,     -0.50447413E-03,      0.87392910E-05,     -0.13264604E-03,      0.10002281E-07
 CTF,   4,      0.11622756    ,      0.23175324E-02,      0.53883142E-01,     -0.23343501E-04
 CTF,   3,      -5.5878110    ,      0.65477890E-01,      -5.0493840    ,      0.47646915E-02
 CTF,   2,       43.013669    ,      0.23502359    ,       44.706794    ,     -0.20642158    
 CTF,   1,      -86.685190    ,      0.10268948    ,      -117.45379    ,      0.92657130    
 CTF,   0,       49.550803    ,      0.16771017E-02,       78.149823    
! <WindowConstruction>,Construction Name,Index,#Layers,Roughness,Conductance {W/m2-K},Conductance (Before Adjusted) {W/m2-K},Convection Coefficient Adjustment Ratio,SHGC,Solar Transmittance at Normal Incidence,Visible Transmittance at Normal Incidence
! <WindowMaterial:Glazing>, Material Name, Optical Data Type, Spectral Data Set Name, Thickness {m}, Solar Transmittance,Front Solar Reflectance, Back Solar Reflectance, Visible Transmittance, Front Visible Reflectance,Back Visible Reflectance,Infrared Transmittance, Front Thermal Emissivity, Back Thermal Emissivity,Conductivity {W/m-K},Dirt Factor,Solar Diffusing
 WindowConstruction,WIN-CON-LIGHT,5,1,VerySmooth,5.984,5.984,1.000,0.919
 WindowMaterial:Glazing,WIN-LAY-GLASS-LIGHT,SpectralAverage,,1.00000E-003,0.90000,3.10000E-002,3.10000E-002,0.90000,5.00000E-002,5.00000E-002,0.00000,0.84000,0.84000,1.20000,1.00000,No
! <Shadowing/Sun Position Calculations Annual Simulations>, Shading Calculation Method, Shading Calculation Update Frequency Method, Shading Calculation Update Frequency {days}, Maximum Figures in Shadow Overlap Calculations {}, Polygon Clipping Algorithm, Pixel Counting Resolution, Sky Diffuse Modeling Algorithm, Output External Shading Calculation Results, Disable Self-Shading Within Shading Zone Groups, Disable Self-Shading From Shading Zone Groups to Other Zones
Shadowing/Sun Position Calculations Annual Simulations,PolygonClipping,Periodic,20,15000,SutherlandHodgman,512,SimpleSkyDiffuseModeling,No,No,No
! <ZoneInfiltration Airflow Stats Nominal>,Name,Schedule Name,Zone Name, Zone Floor Area {m2}, # Zone Occupants,Design Volume Flow Rate {m3/s},Volume Flow Rate/Floor Area {m3/s-m2},Volume Flow Rate/Exterior Surface Area {m3/s-m2},ACH - Air Changes per Hour,Equation A - Constant Term Coefficient {},Equation B - Temperature Term Coefficient {1/C},Equation C - Velocity Term Coefficient {s/m}, Equation D - Velocity Squared Term Coefficient {s2/m2}
 ZoneInfiltration Airflow Stats Nominal, WEST ZONE INF,Constant-1.0,WEST ZONE,37.16,3.0,1.573E-002,4.233E-004,2.117E-004,0.500,1.000,0.000,0.000,0.000
 ZoneInfiltration Airflow Stats Nominal, EAST ZONE INF,Constant-1.0,EAST ZONE,37.16,3.0,1.573E-002,4.233E-004,1.881E-004,0.500,1.000,0.000,0.000,0.000
 ZoneInfiltration Airflow Stats Nominal, NORTH ZONE INF,Constant-1.0,NORTH ZONE,55.74,4.0,3.540E-002,6.350E-004,2.931E-004,0.750,1.000,0.000,0.000,0.000
! <AirFlow Model>, Simple
 AirFlow Model, Simple
! <RoomAir Model>, Zone Name, Mixing/Mundt/UCSDDV/UCSDCV/UCSDUFI/UCSDUFE/User Defined
RoomAir Model,WEST ZONE,Mixing/Well-Stirred
RoomAir Model,EAST ZONE,Mixing/Well-Stirred
RoomAir Model,NORTH ZONE,Mixing/Well-Stirred
! <AirflowNetwork Model:Control>, No Multizone or Distribution/Multizone with Distribution/Multizone without Distribution/Multizone with Distribution only during Fan Operation
AirflowNetwork Model:Control,NoMultizoneOrDistribution
! <Zone Volume Capacitance Multiplier>, Sensible Heat Capacity Multiplier, Moisture Capacity Multiplier, Carbon Dioxide Capacity Multiplier, Generic Contaminant Capacity Multiplier
Zone Volume Capacitance Multiplier,   1.000 ,   1.000,   1.000,   1.000
! <Load Timesteps in Zone Design Calculation Averaging Window>, Value
 Load Timesteps in Zone Design Calculation Averaging Window,    6
! <Heating Sizing Factor Information>, Sizing Factor ID, Value
 Heating Sizing Factor Information, Global,   1.0000    
! <Cooling Sizing Factor Information>, Sizing Factor ID, Value
 Cooling Sizing Factor Information, Global,   1.0000    
! <Zone Sizing Information>, Zone Name, Load Type, Calc Des Load {W}, User Des Load {W}, Calc Des Air Flow Rate {m3/s}, User Des Air Flow Rate {m3/s}, Design Day Name, Date/Time of Peak, Temperature at Peak {C}, Humidity Ratio at Peak {kgWater/kgDryAir}, Floor Area {m2}, # Occupants, Calc Outdoor Air Flow Rate {m3/s}, Calc DOAS Heat Addition Rate {W}
 Zone Sizing Information, WEST ZONE, Cooling, 3138.13066, 3138.13066, 0.26130, 0.26130, CHICAGO_IL_USA ANNUAL COOLING 1% DESIGN CONDITIONS DB/MCWB, 7/21 18:00:00, 28.93200, 1.46116E-002, 37.16122, 3.00000, 2.83200E-002, 0.00000
 Zone Sizing Information, WEST ZONE, Heating, 6069.90154, 6069.90154, 0.18040, 0.18040, CHICAGO_IL_USA ANNUAL HEATING 99% DESIGN CONDITIONS DB, 1/21 24:00:00, -17.30000, 8.38927E-004, 37.16122, 3.00000, 2.83200E-002, 0.00000
 Zone Sizing Information, EAST ZONE, Cooling, 2363.95971, 2363.95971, 0.19684, 0.19684, CHICAGO_IL_USA ANNUAL COOLING 1% DESIGN CONDITIONS DB/MCWB, 7/21 16:00:00, 30.85800, 1.46151E-002, 37.16122, 3.00000, 2.83200E-002, 0.00000
 Zone Sizing Information, EAST ZONE, Heating, 6376.35123, 6376.35123, 0.18951, 0.18951, CHICAGO_IL_USA ANNUAL HEATING 99% DESIGN CONDITIONS DB, 1/21 24:00:00, -17.30000, 8.38927E-004, 37.16122, 3.00000, 2.83200E-002, 0.00000
 Zone Sizing Information, NORTH ZONE, Cooling, 3402.38668, 3402.38668, 0.28333, 0.28333, CHICAGO_IL_USA ANNUAL COOLING 1% DESIGN CONDITIONS DB/MCWB, 7/21 18:30:00, 28.12950, 1.46102E-002, 55.74182, 4.00000, 3.77600E-002, 0.00000
 Zone Sizing Information, NORTH ZONE, Heating, 9711.18794, 9711.18794, 0.28858, 0.28858, CHICAGO_IL_USA ANNUAL HEATING 99% DESIGN CONDITIONS DB, 1/21 24:00:00, -17.30000, 8.38927E-004, 55.74182, 4.00000, 3.77600E-002, 0.00000
! <System Sizing Information>, System Name, Load Type, Peak Load Kind, User Design Capacity, Calc Des Air Flow Rate [m3/s], User Des Air Flow Rate [m3/s], Design Day Name, Date/Time of Peak
 System Sizing Information, HEAT PUMP SYS 1, Cooling, Sensible, 10208.18, 0.74147, 0.74147, CHICAGO_IL_USA ANNUAL COOLING 1% DESIGN CONDITIONS DB/MCWB, 7/21 05:00:00
 System Sizing Information, HEAT PUMP SYS 1, Heating, Sensible, 27510.34, 0.65849, 0.65849, CHICAGO_IL_USA ANNUAL HEATING 99% DESIGN CONDITIONS DB, 1/21 24:00:00
! <Component Sizing Information>, Component Type, Component Name, Input Field Description, Value
 Component Sizing Information, AirTerminal:SingleDuct:ConstantVolume:NoReheat, ZONE1DIRECTAIR, Design Size Maximum Air Flow Rate [m3/s], 0.26130
 Component Sizing Information, AirTerminal:SingleDuct:ConstantVolume:NoReheat, ZONE2DIRECTAIR, Design Size Maximum Air Flow Rate [m3/s], 0.19684
 Component Sizing Information, AirTerminal:SingleDuct:ConstantVolume:NoReheat, ZONE3DIRECTAIR, Design Size Maximum Air Flow Rate [m3/s], 0.28858
 Component Sizing Information, AirLoopHVAC, HEAT PUMP SYS 1, Sum of Air Terminal Maximum Heating Flow Rates [m3/s], 0.74671
 Component Sizing Information, AirLoopHVAC, HEAT PUMP SYS 1, Sum of Air Terminal Minimum Heating Flow Rates [m3/s], 0.74671
 Component Sizing Information, AirLoopHVAC, HEAT PUMP SYS 1, Sum of Air Terminal Maximum Flow Rates [m3/s], 0.74671
 Component Sizing Information, AirLoopHVAC, HEAT PUMP SYS 1, Adjusted Heating Design Air Flow Rate [m3/s], 0.74671
 Component Sizing Information, AirLoopHVAC, HEAT PUMP SYS 1, Adjusted Cooling Design Air Flow Rate [m3/s], 0.74671
 Component Sizing Information, AirLoopHVAC, HEAT PUMP SYS 1, Adjusted Main Design Air Flow Rate [m3/s], 0.74671
 Component Sizing Information, AirLoopHVAC, HEAT PUMP SYS 1, User Heating Air Flow Ratio [], 0.30000
 Component Sizing Information, AirLoopHVAC, HEAT PUMP SYS 1, Calculated Heating Air Flow Ratio [], 1.00000
 Component Sizing Information, Controller:OutdoorAir, OA CONTROLLER 1, Minimum Outdoor Air Flow Rate [m3/s], 9.44000E-002
 Component Sizing Information, Fan:ConstantVolume, SUPPLY FAN 1, Design Size Maximum Flow Rate [m3/s], 0.74671
 Component Sizing Information, Fan:ConstantVolume, SUPPLY FAN 1, User-Specified Maximum Flow Rate [m3/s], 0.66522
 Component Sizing Information, Coil:Cooling:DX:CurveFit:OperatingMode, HEAT PUMP ACDXCOIL 1 OPERATING MODE, User-Specified Rated Evaporator Air Flow Rate [m3/s], 0.66522
 Component Sizing Information, Coil:Cooling:DX:CurveFit:OperatingMode, HEAT PUMP ACDXCOIL 1 OPERATING MODE, Design Size Rated Gross Total Cooling Capacity [W], 13756.23513
 Component Sizing Information, Coil:Cooling:DX:CurveFit:OperatingMode, HEAT PUMP ACDXCOIL 1 OPERATING MODE, User-Specified Rated Gross Total Cooling Capacity [W], 10500.00000
 Component Sizing Information, Coil:Cooling:DX:CurveFit:OperatingMode, HEAT PUMP ACDXCOIL 1 OPERATING MODE, User-Specified Rated Condenser Air Flow Rate [m3/s], 0.00000
 Component Sizing Information, Coil:Cooling:DX:CurveFit:Speed, HEAT PUMP ACDXCOIL 1 SPEED 1 PERFORMANCE, User-Specified Rated Air Flow Rate [m3/s], 0.66522
 Component Sizing Information, Coil:Cooling:DX:CurveFit:Speed, HEAT PUMP ACDXCOIL 1 SPEED 1 PERFORMANCE, Design Size Gross Cooling Capacity [W], 13756.23513
 Component Sizing Information, Coil:Cooling:DX:CurveFit:Speed, HEAT PUMP ACDXCOIL 1 SPEED 1 PERFORMANCE, User-Specified Gross Cooling Capacity [W], 10500.00000
 Component Sizing Information, Coil:Cooling:DX:CurveFit:Speed, HEAT PUMP ACDXCOIL 1 SPEED 1 PERFORMANCE, Design Size Gross Sensible Heat Ratio, 0.80066
 Component Sizing Information, COIL:HEATING:DX:VARIABLESPEED, HEAT PUMP DX HEATING COIL 1, Design Size Nominal Heating Capacity [W], 10500.00000
 Component Sizing Information, COIL:HEATING:DX:VARIABLESPEED, HEAT PUMP DX HEATING COIL 1, User-Specified Nominal Heating Capacity [W], 15000.00000
 Component Sizing Information, COIL:HEATING:DX:VARIABLESPEED, HEAT PUMP DX HEATING COIL 1, Design Size Rated Air Flow Rate [m3/s], 0.74671
 Component Sizing Information, COIL:HEATING:DX:VARIABLESPEED, HEAT PUMP DX HEATING COIL 1, User-Specified Rated Air Flow Rate [m3/s], 0.66522
 Component Sizing Information, Coil:Heating:Fuel, HEAT PUMP DX SUPP HEATING COIL 1, Design Size Nominal Capacity [W], 12103.13295
! <Environment>,Environment Name,Environment Type, Start Date, End Date, Start DayOfWeek, Duration {#days}, Source:Start DayOfWeek,  Use Daylight Saving, Use Holidays, Apply Weekend Holiday Rule,  Use Rain Values, Use Snow Values, Sky Temperature Model
! <Environment:Special Days>, Special Day Name, Special Day Type, Source, Start Date, Duration {#days}
! <Environment:Daylight Saving>, Daylight Saving Indicator, Source, Start Date, End Date
! <Environment:WarmupDays>, NumberofWarmupDays
Environment,JAN,WeatherFileRunPeriod,01/01/2015,03/31/2015,Thursday,90,Use RunPeriod Specified Day,Yes,Yes,No,Yes,Yes,Clark and Allen
Environment:Daylight Saving,No,
Environment:WarmupDays,  6
! <DX Cooling Coil Standard Rating Information>, Component Type, Component Name, Standard Rating (Net) Cooling Capacity {W}, Standard Rated Net COP {W/W}, EER {Btu/W-h}, SEER {Btu/W-h}, IEER {Btu/W-h}
 DX Cooling Coil Standard Rating Information, Coil:Cooling:DX, HEAT PUMP ACDXCOIL 1, 9979.0, 2.49, 8.48, 9.62, 8.53
 DX Cooling Coil Standard Rating Information, Coil:Cooling:DX, HEAT PUMP ACDXCOIL 1, 9871.8, 2.39, 8.17, 9.25, 8.33,  
! <Warmup Convergence Information>,Zone Name,Environment Type/Name,Average Warmup Temperature Difference {deltaC},Std Dev Warmup Temperature Difference {deltaC},Max Temperature Pass/Fail Convergence,Min Temperature Pass/Fail Convergence,Average Warmup Load Difference {W},Std Dev Warmup Load Difference {W},Heating Load Pass/Fail Convergence,Cooling Load Pass/Fail Convergence
 Warmup Convergence Information,WEST ZONE,RunPeriod: JAN,0.3001840518,0.8057593152,Pass,Pass,1.4651065778E-002,9.0752199452E-002,Pass,Pass
 Warmup Convergence Information,EAST ZONE,RunPeriod: JAN,0.2552310896,0.7121098537,Pass,Pass,1.3861216489E-002,8.9882341316E-002,Pass,Pass
 Warmup Convergence Information,NORTH ZONE,RunPeriod: JAN,0.2624032024,0.7628817930,Pass,Pass,1.3762523985E-002,8.9681201491E-002,Pass,Pass
! <Program Control Information:Threads/Parallel Sims>, Threading Supported,Maximum Number of Threads, Env Set Threads (OMP_NUM_THREADS), EP Env Set Threads (EP_OMP_NUM_THREADS), IDF Set Threads, Number of Threads Used (Interior Radiant Exchange), Number Nominal Surfaces, Number Parallel Sims
Program Control:Threads/Parallel Sims, No,1, N/A, N/A, N/A, N/A, N/A, N/A
End of Data
